/*--------------------------------*- C++ -*----------------------------------*\
  =========                |
  \      /  F ield         | OpenFOAM: The Open Source CFD Toolbox
   \    /   O peration     | Website:  https://openfoam.com
    \  /    A nd           | Version:  2406
     \/     M anipulation  |
\*---------------------------------------------------------------------------*/

FoamFile
{
    version         2.0;
    format          ascii;
    class           dictionary;
    location        system;
    object          sampleDict;
}

// * * * * * * * * * * * * * * * * * * * * * * * * * * * * * * * * * * * * //

type sets;
libs ("libsampling.so");

interpolationScheme cellPoint; 

setFormat csv;

surfaceFormat   vtk;

sets
(
    acrossFlow
    {
        type    midPoint;
        axis    y;
        start   ( 5 10 0.5 );
        end     ( 5 0 0.5 );
    }
);

surfaces        ();

fields          ( Sb );

// *********************************************************************** //
